*** SCH_PATH: /HOME/NORITSUNA/OPENRULE1UMPDK_SETUPEDA/SAMPLES/INVERTER/PTC06/INVERTER.SCH
.SUBCKT INVERTER A Q VDD VSS
**.PININFO A:I Q:O VDD:B VSS:B
M1 Q A VDD VDD PMOS L=1.0U W=3.3U M=1
M2 Q A VSS VSS NMOS L=1.0U W=2.0U M=1
.ENDS
*.END
.GLOBAL 0
.END
