.subckt inv1 A VDD VSS X
M3 X A VDD VDD pchorex1 w=6u l=1u
M0 X A VSS VSS nchorex1 w=2u l=1u
.ends inv1