.subckt inv1 A VDD VSS X
M3 X A VDD VDD pchor1ex w=6u l=1u
M0 X A VSS VSS nchor1ex w=2u l=1u
.ends inv1