*** SCH_PATH: /HOME/ISHIKAI/OPENRULE1UMPDK_SETUPEDA/SAMPLES/INVERTER/TR10/INVERTER.SCH
.SUBCKT INVERTER A Q VDD VSS
**.PININFO A:I Q:O VDD:B VSS:B
XM1 Q A VDD VDD PMOS W=3.4U L=1U AS=0 AD=0 PS=0 PD=0 NRD=0 NRS=0 M=1
XM2 Q A VSS VSS NMOS W=3.4U L=1U AS=0 AD=0 PS=0 PD=0 NRD=0 NRS=0 M=1
.ENDS
.GLOBAL 0
.END
