* Created by KLayout

* cell TOP
* pin A
* pin Q
* pin VDD
* pin VSS
.SUBCKT TOP 1 2 3 4
* net 1 A
* net 2 Q
* net 3 VDD
* net 4 VSS
* device instance $1 r0 *1 3.3,-16.2 NMOS
M$1 2 1 4 4 NMOS L=1U W=3.4U AS=9.52P AD=9.52P PS=12.4U PD=12.4U
* device instance $2 r0 *1 3.3,5.7 PMOS
M$2 2 1 3 3 PMOS L=1U W=3.4U AS=9.52P AD=9.52P PS=12.4U PD=12.4U
.ENDS TOP
